[root]
type=Root
children=system
eventq_index=0
full_system=false
sim_quantum=0
time_sync_enable=false
time_sync_period=100000000000
time_sync_spin_threshold=100000000

[system]
type=System
children=clk_domain cpu cpu_clk_domain cpu_voltage_domain dvfs_handler mem_ctrls ruby sys_port_proxy voltage_domain
boot_osflags=a
cache_line_size=64
clk_domain=system.clk_domain
default_p_state=UNDEFINED
eventq_index=0
exit_on_work_items=false
init_param=0
kernel=
kernel_addr_check=true
kernel_extras=
kvm_vm=Null
load_addr_mask=18446744073709551615
load_offset=0
mem_mode=atomic_noncaching
mem_ranges=0:4294967295:0:0:0:0
memories=system.mem_ctrls
mmap_using_noreserve=false
multi_thread=false
num_work_ids=16
p_state_clk_gate_bins=20
p_state_clk_gate_max=1000000000000
p_state_clk_gate_min=1000
power_model=
readfile=
symbolfile=
thermal_components=
thermal_model=Null
work_begin_ckpt_count=0
work_begin_cpu_id_exit=-1
work_begin_exit_count=0
work_cpus_ckpt_count=0
work_end_ckpt_count=0
work_end_exit_count=0
work_item_id=-1
system_port=system.sys_port_proxy.slave[0]

[system.clk_domain]
type=SrcClockDomain
clock=1000
domain_id=-1
eventq_index=0
init_perf_level=0
voltage_domain=system.voltage_domain

[system.cpu]
type=AtomicSimpleCPU
children=apic_clk_domain dtb interrupts isa itb tracer workload
branchPred=Null
checker=Null
clk_domain=system.cpu_clk_domain
cpu_id=0
default_p_state=UNDEFINED
do_checkpoint_insts=true
do_quiesce=true
do_statistics_insts=true
dtb=system.cpu.dtb
eventq_index=0
fastmem=false
function_trace=false
function_trace_start=0
interrupts=system.cpu.interrupts
isa=system.cpu.isa
itb=system.cpu.itb
max_insts_all_threads=0
max_insts_any_thread=0
max_loads_all_threads=0
max_loads_any_thread=0
numThreads=1
p_state_clk_gate_bins=20
p_state_clk_gate_max=1000000000000
p_state_clk_gate_min=1000
power_gating_on_idle=false
power_model=
profile=0
progress_interval=0
pwr_gating_latency=300
simpoint_start_insts=
simulate_data_stalls=false
simulate_inst_stalls=false
socket_id=0
switched_out=false
syscallRetryLatency=10000
system=system
tracer=system.cpu.tracer
wait_for_remote_gdb=false
width=1
workload=system.cpu.workload
dcache_port=system.ruby.l1_cntrl0.sequencer.slave[1]
icache_port=system.ruby.l1_cntrl0.sequencer.slave[0]

[system.cpu.apic_clk_domain]
type=DerivedClockDomain
clk_divider=16
clk_domain=system.cpu_clk_domain
eventq_index=0

[system.cpu.dtb]
type=X86TLB
children=walker
eventq_index=0
size=64
walker=system.cpu.dtb.walker

[system.cpu.dtb.walker]
type=X86PagetableWalker
clk_domain=system.cpu_clk_domain
default_p_state=UNDEFINED
eventq_index=0
num_squash_per_cycle=4
p_state_clk_gate_bins=20
p_state_clk_gate_max=1000000000000
p_state_clk_gate_min=1000
power_model=
system=system
port=system.ruby.l1_cntrl0.sequencer.slave[4]

[system.cpu.interrupts]
type=X86LocalApic
clk_domain=system.cpu.apic_clk_domain
default_p_state=UNDEFINED
eventq_index=0
int_latency=1000
p_state_clk_gate_bins=20
p_state_clk_gate_max=1000000000000
p_state_clk_gate_min=1000
pio_addr=2305843009213693952
pio_latency=100000
power_model=
system=system
int_master=system.ruby.l1_cntrl0.sequencer.slave[2]
int_slave=system.ruby.l1_cntrl0.sequencer.master[1]
pio=system.ruby.l1_cntrl0.sequencer.master[0]

[system.cpu.isa]
type=X86ISA
eventq_index=0

[system.cpu.itb]
type=X86TLB
children=walker
eventq_index=0
size=64
walker=system.cpu.itb.walker

[system.cpu.itb.walker]
type=X86PagetableWalker
clk_domain=system.cpu_clk_domain
default_p_state=UNDEFINED
eventq_index=0
num_squash_per_cycle=4
p_state_clk_gate_bins=20
p_state_clk_gate_max=1000000000000
p_state_clk_gate_min=1000
power_model=
system=system
port=system.ruby.l1_cntrl0.sequencer.slave[3]

[system.cpu.tracer]
type=ExeTracer
eventq_index=0

[system.cpu.workload]
type=Process
cmd=/Home2/hssong/darknet-mobilenet-v2/darknet classifier predict mobilenet/imagenet1k.data mobilenet/test.cfg mobilenet/test.weights mobilenet/cat.jpg
cwd=/Home2/hssong/darknet-mobilenet-v2
drivers=
egid=100
env=
errout=m5out-MOESI_hammer-CrossbarGarnet-TC01/stderr.txt
euid=100
eventq_index=0
executable=/Home2/hssong/darknet-mobilenet-v2/darknet
gid=100
input=cin
kvmInSE=false
maxStackSize=67108864
output=m5out-MOESI_hammer-CrossbarGarnet-TC01/stdout.txt
pgid=100
pid=100
ppid=0
simpoint=0
system=system
uid=100
useArchPT=false

[system.cpu_clk_domain]
type=SrcClockDomain
clock=500
domain_id=-1
eventq_index=0
init_perf_level=0
voltage_domain=system.cpu_voltage_domain

[system.cpu_voltage_domain]
type=VoltageDomain
eventq_index=0
voltage=1.0

[system.dvfs_handler]
type=DVFSHandler
domains=
enable=false
eventq_index=0
sys_clk_domain=system.clk_domain
transition_latency=100000000

[system.mem_ctrls]
type=DRAMCtrl
IDD0=0.055
IDD02=0.0
IDD2N=0.032
IDD2N2=0.0
IDD2P0=0.0
IDD2P02=0.0
IDD2P1=0.032
IDD2P12=0.0
IDD3N=0.038
IDD3N2=0.0
IDD3P0=0.0
IDD3P02=0.0
IDD3P1=0.038
IDD3P12=0.0
IDD4R=0.157
IDD4R2=0.0
IDD4W=0.125
IDD4W2=0.0
IDD5=0.235
IDD52=0.0
IDD6=0.02
IDD62=0.0
VDD=1.5
VDD2=0.0
activation_limit=4
addr_mapping=RoRaBaCoCh
bank_groups_per_rank=0
banks_per_rank=8
burst_length=8
channels=1
clk_domain=system.clk_domain
conf_table_reported=true
default_p_state=UNDEFINED
device_bus_width=8
device_rowbuffer_size=1024
device_size=536870912
devices_per_rank=8
dll=true
eventq_index=0
in_addr_map=true
kvm_map=true
max_accesses_per_row=16
mem_sched_policy=frfcfs
min_writes_per_switch=16
null=false
p_state_clk_gate_bins=20
p_state_clk_gate_max=1000000000000
p_state_clk_gate_min=1000
page_policy=open_adaptive
power_model=
range=0:4294967295:5:18:0:0
ranks_per_channel=2
read_buffer_size=32
static_backend_latency=10000
static_frontend_latency=10000
tBURST=5000
tCCD_L=0
tCCD_L_WR=0
tCK=1250
tCL=13750
tCS=2500
tRAS=35000
tRCD=13750
tREFI=7800000
tRFC=260000
tRP=13750
tRRD=6000
tRRD_L=0
tRTP=7500
tRTW=2500
tWR=15000
tWTR=7500
tXAW=30000
tXP=6000
tXPDLL=0
tXS=270000
tXSDLL=0
write_buffer_size=64
write_high_thresh_perc=85
write_low_thresh_perc=50
port=system.ruby.dir_cntrl0.memory

[system.ruby]
type=RubySystem
children=clk_domain dir_cntrl0 l1_cntrl0 memctrl_clk_domain network
access_backing_store=false
all_instructions=false
block_size_bytes=64
clk_domain=system.ruby.clk_domain
default_p_state=UNDEFINED
eventq_index=0
hot_lines=false
memory_size_bits=48
num_of_sequencers=1
number_of_virtual_networks=6
p_state_clk_gate_bins=20
p_state_clk_gate_max=1000000000000
p_state_clk_gate_min=1000
phys_mem=Null
power_model=
randomization=false

[system.ruby.clk_domain]
type=SrcClockDomain
clock=500
domain_id=-1
eventq_index=0
init_perf_level=0
voltage_domain=system.voltage_domain

[system.ruby.dir_cntrl0]
type=Directory_Controller
children=directory dmaRequestToDir dmaResponseFromDir forwardFromDir probeFilter requestToDir responseFromDir responseFromMemory responseToDir triggerQueue unblockToDir
addr_ranges=0:4294967295:5:0:0:0
buffer_size=0
clk_domain=system.ruby.clk_domain
cluster_id=0
default_p_state=UNDEFINED
directory=system.ruby.dir_cntrl0.directory
dmaRequestToDir=system.ruby.dir_cntrl0.dmaRequestToDir
dmaResponseFromDir=system.ruby.dir_cntrl0.dmaResponseFromDir
eventq_index=0
forwardFromDir=system.ruby.dir_cntrl0.forwardFromDir
from_memory_controller_latency=2
full_bit_dir_enabled=false
number_of_TBEs=256
p_state_clk_gate_bins=20
p_state_clk_gate_max=1000000000000
p_state_clk_gate_min=1000
power_model=
probeFilter=system.ruby.dir_cntrl0.probeFilter
probe_filter_enabled=false
recycle_latency=10
requestToDir=system.ruby.dir_cntrl0.requestToDir
responseFromDir=system.ruby.dir_cntrl0.responseFromDir
responseFromMemory=system.ruby.dir_cntrl0.responseFromMemory
responseToDir=system.ruby.dir_cntrl0.responseToDir
ruby_system=system.ruby
system=system
to_memory_controller_latency=1
transitions_per_cycle=32
triggerQueue=system.ruby.dir_cntrl0.triggerQueue
unblockToDir=system.ruby.dir_cntrl0.unblockToDir
version=0
memory=system.mem_ctrls.port

[system.ruby.dir_cntrl0.directory]
type=RubyDirectoryMemory
addr_ranges=0:4294967295:5:0:0:0
eventq_index=0

[system.ruby.dir_cntrl0.dmaRequestToDir]
type=MessageBuffer
buffer_size=0
eventq_index=0
ordered=true
randomization=false
slave=system.ruby.network.master[5]

[system.ruby.dir_cntrl0.dmaResponseFromDir]
type=MessageBuffer
buffer_size=0
eventq_index=0
ordered=true
randomization=false
master=system.ruby.network.slave[5]

[system.ruby.dir_cntrl0.forwardFromDir]
type=MessageBuffer
buffer_size=0
eventq_index=0
ordered=false
randomization=false
master=system.ruby.network.slave[3]

[system.ruby.dir_cntrl0.probeFilter]
type=RubyCache
children=replacement_policy
assoc=4
block_size=0
dataAccessLatency=1
dataArrayBanks=1
eventq_index=0
is_icache=false
replacement_policy=system.ruby.dir_cntrl0.probeFilter.replacement_policy
resourceStalls=false
ruby_system=system.ruby
size=4194304
start_index_bit=6
tagAccessLatency=1
tagArrayBanks=1

[system.ruby.dir_cntrl0.probeFilter.replacement_policy]
type=PseudoLRUReplacementPolicy
assoc=4
block_size=64
eventq_index=0
size=4194304

[system.ruby.dir_cntrl0.requestToDir]
type=MessageBuffer
buffer_size=0
eventq_index=0
ordered=false
randomization=false
slave=system.ruby.network.master[4]

[system.ruby.dir_cntrl0.responseFromDir]
type=MessageBuffer
buffer_size=0
eventq_index=0
ordered=false
randomization=false
master=system.ruby.network.slave[4]

[system.ruby.dir_cntrl0.responseFromMemory]
type=MessageBuffer
buffer_size=0
eventq_index=0
ordered=false
randomization=false

[system.ruby.dir_cntrl0.responseToDir]
type=MessageBuffer
buffer_size=0
eventq_index=0
ordered=false
randomization=false
slave=system.ruby.network.master[3]

[system.ruby.dir_cntrl0.triggerQueue]
type=MessageBuffer
buffer_size=0
eventq_index=0
ordered=true
randomization=false

[system.ruby.dir_cntrl0.unblockToDir]
type=MessageBuffer
buffer_size=0
eventq_index=0
ordered=false
randomization=false
slave=system.ruby.network.master[2]

[system.ruby.l1_cntrl0]
type=L1Cache_Controller
children=L1Dcache L1Icache L2cache forwardToCache mandatoryQueue requestFromCache responseFromCache responseToCache sequencer triggerQueue unblockFromCache
L1Dcache=system.ruby.l1_cntrl0.L1Dcache
L1Icache=system.ruby.l1_cntrl0.L1Icache
L2cache=system.ruby.l1_cntrl0.L2cache
addr_ranges=0:18446744073709551615:0:0:0:0
buffer_size=0
cache_response_latency=10
clk_domain=system.cpu_clk_domain
cluster_id=0
default_p_state=UNDEFINED
eventq_index=0
forwardToCache=system.ruby.l1_cntrl0.forwardToCache
issue_latency=2
l2_cache_hit_latency=10
mandatoryQueue=system.ruby.l1_cntrl0.mandatoryQueue
no_mig_atomic=true
number_of_TBEs=256
p_state_clk_gate_bins=20
p_state_clk_gate_max=1000000000000
p_state_clk_gate_min=1000
power_model=
recycle_latency=10
requestFromCache=system.ruby.l1_cntrl0.requestFromCache
responseFromCache=system.ruby.l1_cntrl0.responseFromCache
responseToCache=system.ruby.l1_cntrl0.responseToCache
ruby_system=system.ruby
send_evictions=true
sequencer=system.ruby.l1_cntrl0.sequencer
system=system
transitions_per_cycle=4
triggerQueue=system.ruby.l1_cntrl0.triggerQueue
unblockFromCache=system.ruby.l1_cntrl0.unblockFromCache
version=0

[system.ruby.l1_cntrl0.L1Dcache]
type=RubyCache
children=replacement_policy
assoc=2
block_size=0
dataAccessLatency=1
dataArrayBanks=1
eventq_index=0
is_icache=false
replacement_policy=system.ruby.l1_cntrl0.L1Dcache.replacement_policy
resourceStalls=false
ruby_system=system.ruby
size=65536
start_index_bit=6
tagAccessLatency=1
tagArrayBanks=1

[system.ruby.l1_cntrl0.L1Dcache.replacement_policy]
type=PseudoLRUReplacementPolicy
assoc=2
block_size=64
eventq_index=0
size=65536

[system.ruby.l1_cntrl0.L1Icache]
type=RubyCache
children=replacement_policy
assoc=2
block_size=0
dataAccessLatency=1
dataArrayBanks=1
eventq_index=0
is_icache=true
replacement_policy=system.ruby.l1_cntrl0.L1Icache.replacement_policy
resourceStalls=false
ruby_system=system.ruby
size=65536
start_index_bit=6
tagAccessLatency=1
tagArrayBanks=1

[system.ruby.l1_cntrl0.L1Icache.replacement_policy]
type=PseudoLRUReplacementPolicy
assoc=2
block_size=64
eventq_index=0
size=65536

[system.ruby.l1_cntrl0.L2cache]
type=RubyCache
children=replacement_policy
assoc=8
block_size=0
dataAccessLatency=1
dataArrayBanks=1
eventq_index=0
is_icache=false
replacement_policy=system.ruby.l1_cntrl0.L2cache.replacement_policy
resourceStalls=false
ruby_system=system.ruby
size=2097152
start_index_bit=6
tagAccessLatency=1
tagArrayBanks=1

[system.ruby.l1_cntrl0.L2cache.replacement_policy]
type=PseudoLRUReplacementPolicy
assoc=8
block_size=64
eventq_index=0
size=2097152

[system.ruby.l1_cntrl0.forwardToCache]
type=MessageBuffer
buffer_size=0
eventq_index=0
ordered=false
randomization=false
slave=system.ruby.network.master[0]

[system.ruby.l1_cntrl0.mandatoryQueue]
type=MessageBuffer
buffer_size=0
eventq_index=0
ordered=false
randomization=false

[system.ruby.l1_cntrl0.requestFromCache]
type=MessageBuffer
buffer_size=0
eventq_index=0
ordered=false
randomization=false
master=system.ruby.network.slave[0]

[system.ruby.l1_cntrl0.responseFromCache]
type=MessageBuffer
buffer_size=0
eventq_index=0
ordered=false
randomization=false
master=system.ruby.network.slave[1]

[system.ruby.l1_cntrl0.responseToCache]
type=MessageBuffer
buffer_size=0
eventq_index=0
ordered=false
randomization=false
slave=system.ruby.network.master[1]

[system.ruby.l1_cntrl0.sequencer]
type=RubySequencer
clk_domain=system.cpu_clk_domain
coreid=99
dcache=system.ruby.l1_cntrl0.L1Dcache
dcache_hit_latency=1
deadlock_threshold=500000
default_p_state=UNDEFINED
eventq_index=0
garnet_standalone=false
icache=system.ruby.l1_cntrl0.L1Icache
icache_hit_latency=1
is_cpu_sequencer=true
max_outstanding_requests=16
no_retry_on_stall=false
p_state_clk_gate_bins=20
p_state_clk_gate_max=1000000000000
p_state_clk_gate_min=1000
power_model=
ruby_system=system.ruby
support_data_reqs=true
support_inst_reqs=true
system=system
using_ruby_tester=false
version=0
master=system.cpu.interrupts.pio system.cpu.interrupts.int_slave
slave=system.cpu.icache_port system.cpu.dcache_port system.cpu.interrupts.int_master system.cpu.itb.walker.port system.cpu.dtb.walker.port

[system.ruby.l1_cntrl0.triggerQueue]
type=MessageBuffer
buffer_size=0
eventq_index=0
ordered=false
randomization=false

[system.ruby.l1_cntrl0.unblockFromCache]
type=MessageBuffer
buffer_size=0
eventq_index=0
ordered=false
randomization=false
master=system.ruby.network.slave[2]

[system.ruby.memctrl_clk_domain]
type=DerivedClockDomain
clk_divider=3
clk_domain=system.ruby.clk_domain
eventq_index=0

[system.ruby.network]
type=GarnetNetwork
children=ext_links0 ext_links1 netifs0 netifs1 routers
buffers_per_ctrl_vc=1
buffers_per_data_vc=4
clk_domain=system.ruby.clk_domain
control_msg_size=8
default_p_state=UNDEFINED
enable_fault_model=false
eventq_index=0
ext_links=system.ruby.network.ext_links0 system.ruby.network.ext_links1
fault_model=Null
garnet_deadlock_threshold=50000
int_links=
netifs=system.ruby.network.netifs0 system.ruby.network.netifs1
ni_flit_size=16
num_rows=0
number_of_virtual_networks=6
p_state_clk_gate_bins=20
p_state_clk_gate_max=1000000000000
p_state_clk_gate_min=1000
power_model=
routers=system.ruby.network.routers
routing_algorithm=0
ruby_system=system.ruby
topology=CrossbarGarnet
vcs_per_vnet=4
master=system.ruby.l1_cntrl0.forwardToCache.slave system.ruby.l1_cntrl0.responseToCache.slave system.ruby.dir_cntrl0.unblockToDir.slave system.ruby.dir_cntrl0.responseToDir.slave system.ruby.dir_cntrl0.requestToDir.slave system.ruby.dir_cntrl0.dmaRequestToDir.slave
slave=system.ruby.l1_cntrl0.requestFromCache.master system.ruby.l1_cntrl0.responseFromCache.master system.ruby.l1_cntrl0.unblockFromCache.master system.ruby.dir_cntrl0.forwardFromDir.master system.ruby.dir_cntrl0.responseFromDir.master system.ruby.dir_cntrl0.dmaResponseFromDir.master

[system.ruby.network.ext_links0]
type=GarnetExtLink
children=credit_links0 credit_links1 network_links0 network_links1
bandwidth_factor=16
credit_links=system.ruby.network.ext_links0.credit_links0 system.ruby.network.ext_links0.credit_links1
eventq_index=0
ext_node=system.ruby.l1_cntrl0
int_node=system.ruby.network.routers
latency=1
link_id=0
network_links=system.ruby.network.ext_links0.network_links0 system.ruby.network.ext_links0.network_links1
weight=1

[system.ruby.network.ext_links0.credit_links0]
type=CreditLink
clk_domain=system.ruby.clk_domain
default_p_state=UNDEFINED
eventq_index=0
link_id=0
link_latency=1
p_state_clk_gate_bins=20
p_state_clk_gate_max=1000000000000
p_state_clk_gate_min=1000
power_model=
vcs_per_vnet=4
virt_nets=6

[system.ruby.network.ext_links0.credit_links1]
type=CreditLink
clk_domain=system.ruby.clk_domain
default_p_state=UNDEFINED
eventq_index=0
link_id=0
link_latency=1
p_state_clk_gate_bins=20
p_state_clk_gate_max=1000000000000
p_state_clk_gate_min=1000
power_model=
vcs_per_vnet=4
virt_nets=6

[system.ruby.network.ext_links0.network_links0]
type=NetworkLink
clk_domain=system.ruby.clk_domain
default_p_state=UNDEFINED
eventq_index=0
link_id=0
link_latency=1
p_state_clk_gate_bins=20
p_state_clk_gate_max=1000000000000
p_state_clk_gate_min=1000
power_model=
vcs_per_vnet=4
virt_nets=6

[system.ruby.network.ext_links0.network_links1]
type=NetworkLink
clk_domain=system.ruby.clk_domain
default_p_state=UNDEFINED
eventq_index=0
link_id=0
link_latency=1
p_state_clk_gate_bins=20
p_state_clk_gate_max=1000000000000
p_state_clk_gate_min=1000
power_model=
vcs_per_vnet=4
virt_nets=6

[system.ruby.network.ext_links1]
type=GarnetExtLink
children=credit_links0 credit_links1 network_links0 network_links1
bandwidth_factor=16
credit_links=system.ruby.network.ext_links1.credit_links0 system.ruby.network.ext_links1.credit_links1
eventq_index=0
ext_node=system.ruby.dir_cntrl0
int_node=system.ruby.network.routers
latency=1
link_id=1
network_links=system.ruby.network.ext_links1.network_links0 system.ruby.network.ext_links1.network_links1
weight=1

[system.ruby.network.ext_links1.credit_links0]
type=CreditLink
clk_domain=system.ruby.clk_domain
default_p_state=UNDEFINED
eventq_index=0
link_id=1
link_latency=1
p_state_clk_gate_bins=20
p_state_clk_gate_max=1000000000000
p_state_clk_gate_min=1000
power_model=
vcs_per_vnet=4
virt_nets=6

[system.ruby.network.ext_links1.credit_links1]
type=CreditLink
clk_domain=system.ruby.clk_domain
default_p_state=UNDEFINED
eventq_index=0
link_id=1
link_latency=1
p_state_clk_gate_bins=20
p_state_clk_gate_max=1000000000000
p_state_clk_gate_min=1000
power_model=
vcs_per_vnet=4
virt_nets=6

[system.ruby.network.ext_links1.network_links0]
type=NetworkLink
clk_domain=system.ruby.clk_domain
default_p_state=UNDEFINED
eventq_index=0
link_id=1
link_latency=1
p_state_clk_gate_bins=20
p_state_clk_gate_max=1000000000000
p_state_clk_gate_min=1000
power_model=
vcs_per_vnet=4
virt_nets=6

[system.ruby.network.ext_links1.network_links1]
type=NetworkLink
clk_domain=system.ruby.clk_domain
default_p_state=UNDEFINED
eventq_index=0
link_id=1
link_latency=1
p_state_clk_gate_bins=20
p_state_clk_gate_max=1000000000000
p_state_clk_gate_min=1000
power_model=
vcs_per_vnet=4
virt_nets=6

[system.ruby.network.netifs0]
type=GarnetNetworkInterface
clk_domain=system.ruby.clk_domain
default_p_state=UNDEFINED
eventq_index=0
garnet_deadlock_threshold=50000
id=0
p_state_clk_gate_bins=20
p_state_clk_gate_max=1000000000000
p_state_clk_gate_min=1000
power_model=
vcs_per_vnet=4
virt_nets=6

[system.ruby.network.netifs1]
type=GarnetNetworkInterface
clk_domain=system.ruby.clk_domain
default_p_state=UNDEFINED
eventq_index=0
garnet_deadlock_threshold=50000
id=1
p_state_clk_gate_bins=20
p_state_clk_gate_max=1000000000000
p_state_clk_gate_min=1000
power_model=
vcs_per_vnet=4
virt_nets=6

[system.ruby.network.routers]
type=GarnetRouter
clk_domain=system.ruby.clk_domain
default_p_state=UNDEFINED
eventq_index=0
latency=1
p_state_clk_gate_bins=20
p_state_clk_gate_max=1000000000000
p_state_clk_gate_min=1000
power_model=
router_id=0
vcs_per_vnet=4
virt_nets=6

[system.sys_port_proxy]
type=RubyPortProxy
clk_domain=system.clk_domain
default_p_state=UNDEFINED
eventq_index=0
is_cpu_sequencer=true
no_retry_on_stall=false
p_state_clk_gate_bins=20
p_state_clk_gate_max=1000000000000
p_state_clk_gate_min=1000
power_model=
ruby_system=system.ruby
support_data_reqs=true
support_inst_reqs=true
system=system
using_ruby_tester=false
version=0
slave=system.system_port

[system.voltage_domain]
type=VoltageDomain
eventq_index=0
voltage=1.0

